Version 4.1
SHEET 1 996 680
WIRE 0 -160 0 -176
WIRE 288 -160 288 -192
WIRE 288 -160 256 -160
WIRE 256 -112 256 -160
WIRE 288 -112 256 -112
WIRE 368 -112 336 -112
WIRE 0 -48 0 -80
WIRE 0 -48 -80 -48
WIRE 288 -48 288 -64
WIRE 368 -48 368 -112
WIRE 368 -48 288 -48
WIRE 400 -48 368 -48
WIRE -80 -32 -80 -48
WIRE 288 -32 288 -48
WIRE 0 -16 0 -48
WIRE 288 16 256 16
WIRE 368 16 368 -48
WIRE 368 16 336 16
WIRE 256 64 256 16
WIRE 288 64 256 64
WIRE 0 80 0 64
WIRE 288 96 288 64
FLAG -80 -32 0
FLAG 0 80 VSS
FLAG 0 -176 VDD
FLAG 288 96 VSS
FLAG 288 -192 VDD
DATAFLAG 400 -48 ""
SYMBOL voltage 0 -176 R0
WINDOW 123 0 0 Left 0
WINDOW 39 0 0 Left 0
SYMATTR InstName Vp
SYMATTR Value 0.6
SYMBOL voltage 0 -32 R0
WINDOW 123 0 0 Left 0
WINDOW 39 0 0 Left 0
SYMATTR InstName Vn
SYMATTR Value 0.6
SYMBOL nmos130 336 -32 M0
WINDOW 0 95 50 Left 2
WINDOW 3 56 72 Invisible 2
SYMATTR InstName M3s
SYMATTR SpiceLine width=200n length=1969n
SYMBOL pmos130 336 -64 R180
WINDOW 0 94 37 Left 2
WINDOW 3 56 72 Invisible 2
SYMATTR InstName M4s
SYMATTR SpiceLine width=200n length=200n
TEXT -96 168 Left 2 !.lib pmos130.lib
TEXT -96 200 Left 2 !.lib nmos130.lib
TEXT -96 232 Left 2 !.tran 1
